/*--------------------------------*- C++ -*----------------------------------*\
| =========                 |                                                 |
| \\      /  F ield         | OpenFOAM: The Open Source CFD Toolbox           |
|  \\    /   O peration     | Version:  v1806                                 |
|   \\  /    A nd           | Web:      www.OpenFOAM.com                      |
|    \\/     M anipulation  |                                                 |
\*---------------------------------------------------------------------------*/
FoamFile
{
    version     2.0;
    format      ascii;
    class       featureEdgeMesh;
    location    "constant/triSurface";
    object      regionSTL.eMesh;
}
// * * * * * * * * * * * * * * * * * * * * * * * * * * * * * * * * * * * * * //


// points:

150
(
(-1 1 1)
(1 -1 -1)
(0.249021694064 0.0220950301737 0.25)
(0.25 -6.12323426293e-17 0)
(0.25 -6.12323426293e-17 0.25)
(0.249021694064 0.0220950301737 0)
(0.246094495058 0.0440171286464 0.25)
(0.246094495058 0.0440171286464 0)
(0.241241201758 0.065594740212 0.25)
(0.241241201758 0.065594740212 0)
(0.234499901533 0.0866589769721 0.25)
(0.234499901533 0.0866589769721 0)
(0.225923404098 0.107045002282 0.25)
(0.225923404098 0.107045002282 0)
(0.215578600764 0.126593202353 0.25)
(0.215578600764 0.126593202353 0)
(0.203546702862 0.145150706172 0.25)
(0.203546702862 0.145150706172 0)
(0.189921796322 0.162572205067 0.25)
(0.189921796322 0.162572205067 0)
(0.174810394645 0.178721293807 0.25)
(0.174810394645 0.178721293807 0)
(0.158331006765 0.193471699953 0.25)
(0.158331006765 0.193471699953 0)
(0.140612304211 0.206707894802 0.25)
(0.140612304211 0.206707894802 0)
(0.121793203056 0.218326404691 0.25)
(0.121793203056 0.218326404691 0)
(0.102020896971 0.228236094117 0.25)
(0.102020896971 0.228236094117 0)
(0.0814501419663 0.236359596252 0.25)
(0.0814501419663 0.236359596252 0)
(0.0602419301867 0.242633298039 0.25)
(0.0602419301867 0.242633298039 0)
(0.0385622307658 0.247007995844 0.25)
(0.0385622307658 0.247007995844 0)
(0.0165807399899 0.249449595809 0.25)
(0.0165807399899 0.249449595809 0)
(-0.00553052220494 0.249938800931 0.25)
(-0.00553052220494 0.249938800931 0)
(-0.0275985002518 0.248472005129 0.25)
(-0.0275985002518 0.248472005129 0)
(-0.0494504794478 0.245060503483 0.25)
(-0.0494504794478 0.245060503483 0)
(-0.0709154382348 0.239731103182 0.25)
(-0.0709154382348 0.239731103182 0)
(-0.0918254032731 0.232525497675 0.25)
(-0.0918254032731 0.232525497675 0)
(-0.112016700208 0.22349999845 0.25)
(-0.112016700208 0.22349999845 0)
(-0.131331294775 0.212725400925 0.25)
(-0.131331294775 0.212725400925 0)
(-0.1496181041 0.200285896659 0.25)
(-0.1496181041 0.200285896659 0)
(-0.166733905673 0.186278894544 0.25)
(-0.166733905673 0.186278894544 0)
(-0.182544797659 0.17081399262 0.25)
(-0.182544797659 0.17081399262 0)
(-0.196926996112 0.154012203217 0.25)
(-0.196926996112 0.154012203217 0)
(-0.209767997265 0.136005103588 0.25)
(-0.209767997265 0.136005103588 0)
(-0.220967292786 0.116933599114 0.25)
(-0.220967292786 0.116933599114 0)
(-0.230437204242 0.0969468802214 0.25)
(-0.230437204242 0.0969468802214 0)
(-0.238103598356 0.0762014389038 0.25)
(-0.238103598356 0.0762014389038 0)
(-0.243906602263 0.0548596307635 0.25)
(-0.243906602263 0.0548596307635 0)
(-0.247800603509 0.0330884605646 0.25)
(-0.247800603509 0.0330884605646 0)
(-0.249755293131 0.0110583398491 0.25)
(-0.249755293131 0.0110583398491 0)
(-0.249755293131 -0.0110583398491 0.25)
(-0.249755293131 -0.0110583398491 0)
(-0.247800603509 -0.0330884605646 0.25)
(-0.247800603509 -0.0330884605646 0)
(-0.243906602263 -0.0548596307635 0.25)
(-0.243906602263 -0.0548596307635 0)
(-0.238103598356 -0.0762014389038 0.25)
(-0.238103598356 -0.0762014389038 0)
(-0.230437204242 -0.0969468802214 0.25)
(-0.230437204242 -0.0969468802214 0)
(-0.220967292786 -0.116933599114 0.25)
(-0.220967292786 -0.116933599114 0)
(-0.209767997265 -0.136005103588 0.25)
(-0.209767997265 -0.136005103588 0)
(-0.196926996112 -0.154012203217 0.25)
(-0.196926996112 -0.154012203217 0)
(-0.182544797659 -0.17081399262 0.25)
(-0.182544797659 -0.17081399262 0)
(-0.166733905673 -0.186278894544 0.25)
(-0.166733905673 -0.186278894544 0)
(-0.1496181041 -0.200285896659 0.25)
(-0.1496181041 -0.200285896659 0)
(-0.131331294775 -0.212725400925 0.25)
(-0.131331294775 -0.212725400925 0)
(-0.112016700208 -0.22349999845 0.25)
(-0.112016700208 -0.22349999845 0)
(-0.0918254032731 -0.232525497675 0.25)
(-0.0918254032731 -0.232525497675 0)
(-0.0709154382348 -0.239731103182 0.25)
(-0.0709154382348 -0.239731103182 0)
(-0.0494504794478 -0.245060503483 0.25)
(-0.0494504794478 -0.245060503483 0)
(-0.0275985002518 -0.248472005129 0.25)
(-0.0275985002518 -0.248472005129 0)
(-0.00553052220494 -0.249938800931 0.25)
(-0.00553052220494 -0.249938800931 0)
(0.0165807399899 -0.249449595809 0.25)
(0.0165807399899 -0.249449595809 0)
(0.0385622307658 -0.247007995844 0.25)
(0.0385622307658 -0.247007995844 0)
(0.0602419301867 -0.242633298039 0.25)
(0.0602419301867 -0.242633298039 0)
(0.0814501419663 -0.236359596252 0.25)
(0.0814501419663 -0.236359596252 0)
(0.102020896971 -0.228236094117 0.25)
(0.102020896971 -0.228236094117 0)
(0.121793203056 -0.218326404691 0.25)
(0.121793203056 -0.218326404691 0)
(0.140612304211 -0.206707894802 0.25)
(0.140612304211 -0.206707894802 0)
(0.158331006765 -0.193471699953 0.25)
(0.158331006765 -0.193471699953 0)
(0.174810394645 -0.178721293807 0.25)
(0.174810394645 -0.178721293807 0)
(0.189921796322 -0.162572205067 0.25)
(0.189921796322 -0.162572205067 0)
(0.203546702862 -0.145150706172 0.25)
(0.203546702862 -0.145150706172 0)
(0.215578600764 -0.126593202353 0.25)
(0.215578600764 -0.126593202353 0)
(0.225923404098 -0.107045002282 0.25)
(0.225923404098 -0.107045002282 0)
(0.234499901533 -0.0866589769721 0.25)
(0.234499901533 -0.0866589769721 0)
(0.241241201758 -0.065594740212 0.25)
(0.241241201758 -0.065594740212 0)
(0.246094495058 -0.0440171286464 0.25)
(0.246094495058 -0.0440171286464 0)
(0.249021694064 -0.0220950301737 0.25)
(0.249021694064 -0.0220950301737 0)
(1 1 1)
(-1 -1 1)
(1 -1 1)
(1 1 -1)
(-1 1 -1)
(-1 -1 -1)
)


// edges:

438
(
(144 0)
(0 145)
(146 144)
(145 146)
(147 144)
(1 147)
(146 1)
(147 148)
(148 0)
(149 148)
(1 149)
(149 145)
(3 4)
(4 2)
(2 5)
(5 3)
(2 6)
(6 7)
(7 5)
(6 8)
(8 9)
(9 7)
(8 10)
(10 11)
(11 9)
(10 12)
(12 13)
(13 11)
(12 14)
(14 15)
(15 13)
(14 16)
(16 17)
(17 15)
(18 19)
(19 17)
(16 18)
(20 21)
(21 19)
(18 20)
(22 23)
(23 21)
(20 22)
(24 25)
(25 23)
(22 24)
(26 27)
(27 25)
(24 26)
(28 29)
(29 27)
(26 28)
(28 30)
(30 31)
(31 29)
(30 32)
(32 33)
(33 31)
(32 34)
(34 35)
(35 33)
(34 36)
(36 37)
(37 35)
(36 38)
(38 39)
(39 37)
(38 40)
(40 41)
(41 39)
(40 42)
(42 43)
(43 41)
(42 44)
(44 45)
(45 43)
(44 46)
(46 47)
(47 45)
(46 48)
(48 49)
(49 47)
(48 50)
(50 51)
(51 49)
(50 52)
(52 53)
(53 51)
(52 54)
(54 55)
(55 53)
(54 56)
(56 57)
(57 55)
(56 58)
(58 59)
(59 57)
(60 61)
(61 59)
(58 60)
(62 63)
(63 61)
(60 62)
(64 65)
(65 63)
(62 64)
(66 67)
(67 65)
(64 66)
(68 69)
(69 67)
(66 68)
(70 71)
(71 69)
(68 70)
(72 73)
(73 71)
(70 72)
(74 75)
(75 73)
(72 74)
(76 77)
(77 75)
(74 76)
(78 79)
(79 77)
(76 78)
(78 80)
(80 81)
(81 79)
(80 82)
(82 83)
(83 81)
(82 84)
(84 85)
(85 83)
(86 87)
(87 85)
(84 86)
(88 89)
(89 87)
(86 88)
(90 91)
(91 89)
(88 90)
(92 93)
(93 91)
(90 92)
(94 95)
(95 93)
(92 94)
(96 97)
(97 95)
(94 96)
(98 99)
(99 97)
(96 98)
(100 101)
(101 99)
(98 100)
(102 103)
(103 101)
(100 102)
(104 105)
(105 103)
(102 104)
(106 107)
(107 105)
(104 106)
(108 109)
(109 107)
(106 108)
(110 111)
(111 109)
(108 110)
(112 113)
(113 111)
(110 112)
(114 115)
(115 113)
(112 114)
(116 117)
(117 115)
(114 116)
(118 119)
(119 117)
(116 118)
(120 121)
(121 119)
(118 120)
(122 123)
(123 121)
(120 122)
(124 125)
(125 123)
(122 124)
(126 127)
(127 125)
(124 126)
(128 129)
(129 127)
(126 128)
(130 131)
(131 129)
(128 130)
(130 132)
(132 133)
(133 131)
(132 134)
(134 135)
(135 133)
(134 136)
(136 137)
(137 135)
(136 138)
(138 139)
(139 137)
(138 140)
(140 141)
(141 139)
(140 142)
(142 143)
(143 141)
(142 4)
(3 143)
(12 11)
(16 15)
(19 20)
(23 24)
(25 26)
(32 31)
(34 33)
(38 37)
(40 39)
(44 43)
(46 45)
(48 47)
(50 49)
(58 57)
(71 72)
(77 78)
(85 86)
(87 88)
(89 90)
(97 98)
(99 100)
(101 102)
(103 104)
(107 108)
(109 110)
(113 114)
(115 116)
(125 126)
(129 130)
(134 133)
(138 137)
(140 139)
(142 141)
(4 143)
(2 3)
(6 5)
(8 7)
(10 9)
(14 13)
(17 18)
(21 22)
(27 28)
(30 29)
(36 35)
(42 41)
(52 51)
(54 53)
(56 55)
(59 60)
(61 62)
(63 64)
(65 66)
(67 68)
(69 70)
(73 74)
(75 76)
(80 79)
(82 81)
(84 83)
(91 92)
(93 94)
(95 96)
(105 106)
(111 112)
(117 118)
(119 120)
(121 122)
(123 124)
(127 128)
(132 131)
(136 135)
(20 2)
(4 20)
(20 6)
(20 8)
(20 10)
(20 12)
(20 14)
(20 16)
(20 24)
(20 26)
(20 28)
(20 30)
(20 32)
(20 34)
(20 36)
(20 38)
(20 40)
(20 42)
(20 44)
(20 46)
(20 48)
(20 50)
(20 52)
(20 54)
(20 56)
(20 58)
(20 60)
(20 62)
(20 64)
(20 66)
(20 68)
(20 70)
(20 72)
(20 74)
(20 76)
(20 78)
(20 80)
(20 82)
(20 84)
(20 86)
(20 88)
(20 90)
(20 92)
(20 94)
(20 96)
(20 98)
(20 100)
(20 102)
(20 104)
(20 106)
(20 108)
(20 110)
(20 112)
(20 114)
(20 116)
(20 118)
(20 120)
(20 122)
(20 124)
(20 126)
(20 128)
(20 130)
(20 132)
(20 134)
(20 136)
(20 138)
(20 140)
(20 142)
(5 21)
(21 3)
(7 21)
(9 21)
(11 21)
(13 21)
(15 21)
(17 21)
(25 21)
(27 21)
(29 21)
(31 21)
(33 21)
(35 21)
(37 21)
(39 21)
(41 21)
(43 21)
(45 21)
(47 21)
(49 21)
(51 21)
(53 21)
(55 21)
(57 21)
(59 21)
(61 21)
(63 21)
(65 21)
(67 21)
(69 21)
(71 21)
(73 21)
(75 21)
(77 21)
(79 21)
(81 21)
(83 21)
(85 21)
(87 21)
(89 21)
(91 21)
(93 21)
(95 21)
(97 21)
(99 21)
(101 21)
(103 21)
(105 21)
(107 21)
(109 21)
(111 21)
(113 21)
(115 21)
(117 21)
(119 21)
(121 21)
(123 21)
(125 21)
(127 21)
(129 21)
(131 21)
(133 21)
(135 21)
(137 21)
(139 21)
(141 21)
(143 21)
(145 144)
(146 147)
(148 144)
(147 149)
(148 145)
(146 149)
)

// * * * * * * * * * * * * * * * * * * * * * * * * * * * * * * * * * * * * * //


// ************************************************************************* //
