/*--------------------------------*- C++ -*----------------------------------*\
| =========                 |                                                 |
| \\      /  F ield         | OpenFOAM: The Open Source CFD Toolbox           |
|  \\    /   O peration     | Version:  v1806                                 |
|   \\  /    A nd           | Web:      www.OpenFOAM.com                      |
|    \\/     M anipulation  |                                                 |
\*---------------------------------------------------------------------------*/
FoamFile
{
    version     2.0;
    format      ascii;
    class       dictionary;
    object      topoSetDict;
}
// * * * * * * * * * * * * * * * * * * * * * * * * * * * * * * * * * * * * * //

actions
(
    {
        name    objectSet;
        type    faceSet;
        action  new;
        source  patchToFace;
        sourceInfo
        {
            name Wall;
        }
    }
    
    {
        name    oversetSet;
        type    faceSet;
        action  new;
        source  patchToFace;
        sourceInfo
        {
            name sides;
        }
    }
    {
        name    oversetSet;
        type    faceSet;
        action  add;
        source  patchToFace;
        sourceInfo
        {
            name Wall;
        }
    }
    

    
);

// ************************************************************************* //
