/*--------------------------------*- C++ -*----------------------------------*\
| =========                 |                                                 |
| \\      /  F ield         | OpenFOAM: The Open Source CFD Toolbox           |
|  \\    /   O peration     | Version:  v1806                                 |
|   \\  /    A nd           | Web:      www.OpenFOAM.com                      |
|    \\/     M anipulation  |                                                 |
\*---------------------------------------------------------------------------*/
FoamFile
{
    version     2.0;
    format      ascii;
    class       dictionary;
    object      snappyHexMeshDict;
}
// * * * * * * * * * * * * * * * * * * * * * * * * * * * * * * * * * * * * * //

#includeEtc "caseDicts/mesh/generation/snappyHexMeshDict.cfg"

castellatedMesh on;
snap            on;
addLayers       off;

geometry
{
    regionSTL.stl
    {
        type triSurfaceMesh;
        
        regions
        {
            sides   {name sides;}
            floatingObject  {name floatingObject;}
        }
    }
};

castellatedMeshControls
{
    features
    (
        { file "regionSTL.eMesh"; level 2; }
    );

    refinementSurfaces
    {
        regionSTL.stl
        {
            level (2 2);
            regions
            {
                sides   {level (1 1);patchInfo  {type wall;} }
                floatingObject  { level (2 2); patchInfo    {type wall;}}
            }
        }
    }

    refinementRegions
    {
        
    }

    locationInMesh (0.06 0 0); // Offset from (0 0 0) to avoid
                                     // coinciding with face or edge
    nCellsBetweenLevels 3;
}

snapControls
{
//  explicitFeatureSnap    true;
//  implicitFeatureSnap    false;
}

addLayersControls
{
    layers
    {
        floatingObject
        {
            nSurfaceLayers 2;
        }
    }

    relativeSizes       true; // false, usually with firstLayerThickness
    expansionRatio      1.2;
    finalLayerThickness 0.005;
    minThickness        1e-4;
//  firstLayerThickness 0.01;

//  maxThicknessToMedialRatio 0.6;
}

meshQualityControls
{
//    minTetQuality -1e+30;
}

writeFlags
(
//    scalarLevels
    layerSets
    layerFields
);

mergeTolerance 1e-6;

// ************************************************************************* //
