/*--------------------------------*- C++ -*----------------------------------*\
| =========                 |                                                 |
| \\      /  F ield         | OpenFOAM: The Open Source CFD Toolbox           |
|  \\    /   O peration     | Version:  v1806                                 |
|   \\  /    A nd           | Web:      www.OpenFOAM.com                      |
|    \\/     M anipulation  |                                                 |
\*---------------------------------------------------------------------------*/
FoamFile
{
    version     2.0;
    format      ascii;
    class       extendedFeatureEdgeMesh;
    location    "constant/extendedFeatureEdgeMesh";
    object      regionSTL.extendedFeatureEdgeMesh;
}
// * * * * * * * * * * * * * * * * * * * * * * * * * * * * * * * * * * * * * //

// points

150
(
(-1 1 1)
(1 -1 -1)
(0.249021694064 0.0220950301737 0.25)
(0.25 -6.12323426293e-17 0)
(0.25 -6.12323426293e-17 0.25)
(0.249021694064 0.0220950301737 0)
(0.246094495058 0.0440171286464 0.25)
(0.246094495058 0.0440171286464 0)
(0.241241201758 0.065594740212 0.25)
(0.241241201758 0.065594740212 0)
(0.234499901533 0.0866589769721 0.25)
(0.234499901533 0.0866589769721 0)
(0.225923404098 0.107045002282 0.25)
(0.225923404098 0.107045002282 0)
(0.215578600764 0.126593202353 0.25)
(0.215578600764 0.126593202353 0)
(0.203546702862 0.145150706172 0.25)
(0.203546702862 0.145150706172 0)
(0.189921796322 0.162572205067 0.25)
(0.189921796322 0.162572205067 0)
(0.174810394645 0.178721293807 0.25)
(0.174810394645 0.178721293807 0)
(0.158331006765 0.193471699953 0.25)
(0.158331006765 0.193471699953 0)
(0.140612304211 0.206707894802 0.25)
(0.140612304211 0.206707894802 0)
(0.121793203056 0.218326404691 0.25)
(0.121793203056 0.218326404691 0)
(0.102020896971 0.228236094117 0.25)
(0.102020896971 0.228236094117 0)
(0.0814501419663 0.236359596252 0.25)
(0.0814501419663 0.236359596252 0)
(0.0602419301867 0.242633298039 0.25)
(0.0602419301867 0.242633298039 0)
(0.0385622307658 0.247007995844 0.25)
(0.0385622307658 0.247007995844 0)
(0.0165807399899 0.249449595809 0.25)
(0.0165807399899 0.249449595809 0)
(-0.00553052220494 0.249938800931 0.25)
(-0.00553052220494 0.249938800931 0)
(-0.0275985002518 0.248472005129 0.25)
(-0.0275985002518 0.248472005129 0)
(-0.0494504794478 0.245060503483 0.25)
(-0.0494504794478 0.245060503483 0)
(-0.0709154382348 0.239731103182 0.25)
(-0.0709154382348 0.239731103182 0)
(-0.0918254032731 0.232525497675 0.25)
(-0.0918254032731 0.232525497675 0)
(-0.112016700208 0.22349999845 0.25)
(-0.112016700208 0.22349999845 0)
(-0.131331294775 0.212725400925 0.25)
(-0.131331294775 0.212725400925 0)
(-0.1496181041 0.200285896659 0.25)
(-0.1496181041 0.200285896659 0)
(-0.166733905673 0.186278894544 0.25)
(-0.166733905673 0.186278894544 0)
(-0.182544797659 0.17081399262 0.25)
(-0.182544797659 0.17081399262 0)
(-0.196926996112 0.154012203217 0.25)
(-0.196926996112 0.154012203217 0)
(-0.209767997265 0.136005103588 0.25)
(-0.209767997265 0.136005103588 0)
(-0.220967292786 0.116933599114 0.25)
(-0.220967292786 0.116933599114 0)
(-0.230437204242 0.0969468802214 0.25)
(-0.230437204242 0.0969468802214 0)
(-0.238103598356 0.0762014389038 0.25)
(-0.238103598356 0.0762014389038 0)
(-0.243906602263 0.0548596307635 0.25)
(-0.243906602263 0.0548596307635 0)
(-0.247800603509 0.0330884605646 0.25)
(-0.247800603509 0.0330884605646 0)
(-0.249755293131 0.0110583398491 0.25)
(-0.249755293131 0.0110583398491 0)
(-0.249755293131 -0.0110583398491 0.25)
(-0.249755293131 -0.0110583398491 0)
(-0.247800603509 -0.0330884605646 0.25)
(-0.247800603509 -0.0330884605646 0)
(-0.243906602263 -0.0548596307635 0.25)
(-0.243906602263 -0.0548596307635 0)
(-0.238103598356 -0.0762014389038 0.25)
(-0.238103598356 -0.0762014389038 0)
(-0.230437204242 -0.0969468802214 0.25)
(-0.230437204242 -0.0969468802214 0)
(-0.220967292786 -0.116933599114 0.25)
(-0.220967292786 -0.116933599114 0)
(-0.209767997265 -0.136005103588 0.25)
(-0.209767997265 -0.136005103588 0)
(-0.196926996112 -0.154012203217 0.25)
(-0.196926996112 -0.154012203217 0)
(-0.182544797659 -0.17081399262 0.25)
(-0.182544797659 -0.17081399262 0)
(-0.166733905673 -0.186278894544 0.25)
(-0.166733905673 -0.186278894544 0)
(-0.1496181041 -0.200285896659 0.25)
(-0.1496181041 -0.200285896659 0)
(-0.131331294775 -0.212725400925 0.25)
(-0.131331294775 -0.212725400925 0)
(-0.112016700208 -0.22349999845 0.25)
(-0.112016700208 -0.22349999845 0)
(-0.0918254032731 -0.232525497675 0.25)
(-0.0918254032731 -0.232525497675 0)
(-0.0709154382348 -0.239731103182 0.25)
(-0.0709154382348 -0.239731103182 0)
(-0.0494504794478 -0.245060503483 0.25)
(-0.0494504794478 -0.245060503483 0)
(-0.0275985002518 -0.248472005129 0.25)
(-0.0275985002518 -0.248472005129 0)
(-0.00553052220494 -0.249938800931 0.25)
(-0.00553052220494 -0.249938800931 0)
(0.0165807399899 -0.249449595809 0.25)
(0.0165807399899 -0.249449595809 0)
(0.0385622307658 -0.247007995844 0.25)
(0.0385622307658 -0.247007995844 0)
(0.0602419301867 -0.242633298039 0.25)
(0.0602419301867 -0.242633298039 0)
(0.0814501419663 -0.236359596252 0.25)
(0.0814501419663 -0.236359596252 0)
(0.102020896971 -0.228236094117 0.25)
(0.102020896971 -0.228236094117 0)
(0.121793203056 -0.218326404691 0.25)
(0.121793203056 -0.218326404691 0)
(0.140612304211 -0.206707894802 0.25)
(0.140612304211 -0.206707894802 0)
(0.158331006765 -0.193471699953 0.25)
(0.158331006765 -0.193471699953 0)
(0.174810394645 -0.178721293807 0.25)
(0.174810394645 -0.178721293807 0)
(0.189921796322 -0.162572205067 0.25)
(0.189921796322 -0.162572205067 0)
(0.203546702862 -0.145150706172 0.25)
(0.203546702862 -0.145150706172 0)
(0.215578600764 -0.126593202353 0.25)
(0.215578600764 -0.126593202353 0)
(0.225923404098 -0.107045002282 0.25)
(0.225923404098 -0.107045002282 0)
(0.234499901533 -0.0866589769721 0.25)
(0.234499901533 -0.0866589769721 0)
(0.241241201758 -0.065594740212 0.25)
(0.241241201758 -0.065594740212 0)
(0.246094495058 -0.0440171286464 0.25)
(0.246094495058 -0.0440171286464 0)
(0.249021694064 -0.0220950301737 0.25)
(0.249021694064 -0.0220950301737 0)
(1 1 1)
(-1 -1 1)
(1 -1 1)
(1 1 -1)
(-1 1 -1)
(-1 -1 -1)
)

// edges

438
(
(144 0)
(0 145)
(146 144)
(145 146)
(147 144)
(1 147)
(146 1)
(147 148)
(148 0)
(149 148)
(1 149)
(149 145)
(3 4)
(4 2)
(2 5)
(5 3)
(2 6)
(6 7)
(7 5)
(6 8)
(8 9)
(9 7)
(8 10)
(10 11)
(11 9)
(10 12)
(12 13)
(13 11)
(12 14)
(14 15)
(15 13)
(14 16)
(16 17)
(17 15)
(18 19)
(19 17)
(16 18)
(20 21)
(21 19)
(18 20)
(22 23)
(23 21)
(20 22)
(24 25)
(25 23)
(22 24)
(26 27)
(27 25)
(24 26)
(28 29)
(29 27)
(26 28)
(28 30)
(30 31)
(31 29)
(30 32)
(32 33)
(33 31)
(32 34)
(34 35)
(35 33)
(34 36)
(36 37)
(37 35)
(36 38)
(38 39)
(39 37)
(38 40)
(40 41)
(41 39)
(40 42)
(42 43)
(43 41)
(42 44)
(44 45)
(45 43)
(44 46)
(46 47)
(47 45)
(46 48)
(48 49)
(49 47)
(48 50)
(50 51)
(51 49)
(50 52)
(52 53)
(53 51)
(52 54)
(54 55)
(55 53)
(54 56)
(56 57)
(57 55)
(56 58)
(58 59)
(59 57)
(60 61)
(61 59)
(58 60)
(62 63)
(63 61)
(60 62)
(64 65)
(65 63)
(62 64)
(66 67)
(67 65)
(64 66)
(68 69)
(69 67)
(66 68)
(70 71)
(71 69)
(68 70)
(72 73)
(73 71)
(70 72)
(74 75)
(75 73)
(72 74)
(76 77)
(77 75)
(74 76)
(78 79)
(79 77)
(76 78)
(78 80)
(80 81)
(81 79)
(80 82)
(82 83)
(83 81)
(82 84)
(84 85)
(85 83)
(86 87)
(87 85)
(84 86)
(88 89)
(89 87)
(86 88)
(90 91)
(91 89)
(88 90)
(92 93)
(93 91)
(90 92)
(94 95)
(95 93)
(92 94)
(96 97)
(97 95)
(94 96)
(98 99)
(99 97)
(96 98)
(100 101)
(101 99)
(98 100)
(102 103)
(103 101)
(100 102)
(104 105)
(105 103)
(102 104)
(106 107)
(107 105)
(104 106)
(108 109)
(109 107)
(106 108)
(110 111)
(111 109)
(108 110)
(112 113)
(113 111)
(110 112)
(114 115)
(115 113)
(112 114)
(116 117)
(117 115)
(114 116)
(118 119)
(119 117)
(116 118)
(120 121)
(121 119)
(118 120)
(122 123)
(123 121)
(120 122)
(124 125)
(125 123)
(122 124)
(126 127)
(127 125)
(124 126)
(128 129)
(129 127)
(126 128)
(130 131)
(131 129)
(128 130)
(130 132)
(132 133)
(133 131)
(132 134)
(134 135)
(135 133)
(134 136)
(136 137)
(137 135)
(136 138)
(138 139)
(139 137)
(138 140)
(140 141)
(141 139)
(140 142)
(142 143)
(143 141)
(142 4)
(3 143)
(12 11)
(16 15)
(19 20)
(23 24)
(25 26)
(32 31)
(34 33)
(38 37)
(40 39)
(44 43)
(46 45)
(48 47)
(50 49)
(58 57)
(71 72)
(77 78)
(85 86)
(87 88)
(89 90)
(97 98)
(99 100)
(101 102)
(103 104)
(107 108)
(109 110)
(113 114)
(115 116)
(125 126)
(129 130)
(134 133)
(138 137)
(140 139)
(142 141)
(4 143)
(2 3)
(6 5)
(8 7)
(10 9)
(14 13)
(17 18)
(21 22)
(27 28)
(30 29)
(36 35)
(42 41)
(52 51)
(54 53)
(56 55)
(59 60)
(61 62)
(63 64)
(65 66)
(67 68)
(69 70)
(73 74)
(75 76)
(80 79)
(82 81)
(84 83)
(91 92)
(93 94)
(95 96)
(105 106)
(111 112)
(117 118)
(119 120)
(121 122)
(123 124)
(127 128)
(132 131)
(136 135)
(20 2)
(4 20)
(20 6)
(20 8)
(20 10)
(20 12)
(20 14)
(20 16)
(20 24)
(20 26)
(20 28)
(20 30)
(20 32)
(20 34)
(20 36)
(20 38)
(20 40)
(20 42)
(20 44)
(20 46)
(20 48)
(20 50)
(20 52)
(20 54)
(20 56)
(20 58)
(20 60)
(20 62)
(20 64)
(20 66)
(20 68)
(20 70)
(20 72)
(20 74)
(20 76)
(20 78)
(20 80)
(20 82)
(20 84)
(20 86)
(20 88)
(20 90)
(20 92)
(20 94)
(20 96)
(20 98)
(20 100)
(20 102)
(20 104)
(20 106)
(20 108)
(20 110)
(20 112)
(20 114)
(20 116)
(20 118)
(20 120)
(20 122)
(20 124)
(20 126)
(20 128)
(20 130)
(20 132)
(20 134)
(20 136)
(20 138)
(20 140)
(20 142)
(5 21)
(21 3)
(7 21)
(9 21)
(11 21)
(13 21)
(15 21)
(17 21)
(25 21)
(27 21)
(29 21)
(31 21)
(33 21)
(35 21)
(37 21)
(39 21)
(41 21)
(43 21)
(45 21)
(47 21)
(49 21)
(51 21)
(53 21)
(55 21)
(57 21)
(59 21)
(61 21)
(63 21)
(65 21)
(67 21)
(69 21)
(71 21)
(73 21)
(75 21)
(77 21)
(79 21)
(81 21)
(83 21)
(85 21)
(87 21)
(89 21)
(91 21)
(93 21)
(95 21)
(97 21)
(99 21)
(101 21)
(103 21)
(105 21)
(107 21)
(109 21)
(111 21)
(113 21)
(115 21)
(117 21)
(119 21)
(121 21)
(123 21)
(125 21)
(127 21)
(129 21)
(131 21)
(133 21)
(135 21)
(137 21)
(139 21)
(141 21)
(143 21)
(145 144)
(146 147)
(148 144)
(147 149)
(148 145)
(146 149)
)

// concaveStart mixedStart nonFeatureStart
2 2 150
// internalStart flatStart openStart multipleStart
12 225 438 438
// normals

292
(
(-0.921750021916 -0.38778460142 0)
(-0.921750021916 -0.38778460142 -0)
(-0.839072780424 -0.544019180868 0)
(-0.839072780424 -0.544019180868 -0)
(-0.730176900263 -0.683258146181 -0)
(-0.730176900263 -0.683258146181 0)
(-0.598470082582 -0.801145155546 -0)
(-0.598470082582 -0.801145155546 0)
(-0.525327504642 -0.850900119207 -0)
(-0.525327504642 -0.850900119207 0)
(-0.283663799766 -0.95892379713 0)
(-0.283663799766 -0.95892379713 -0)
(-0.197800874173 -0.980242222196 0)
(-0.197800874173 -0.980242222196 -0)
(-0.0221192905252 -0.999755338564 0)
(-0.0221192905252 -0.999755338564 -0)
(0.0663208214656 -0.99779835069 0)
(0.0663208214656 -0.99779835069 0)
(0.240967605047 -0.970533159309 0)
(0.240967605047 -0.970533159309 0)
(0.325799648921 -0.945438833962 0)
(0.325799648921 -0.945438833962 0)
(0.408085387568 -0.912943764124 0)
(0.408085387568 -0.912943764124 0)
(0.487171662445 -0.873306229974 0)
(0.487171662445 -0.873306229974 0)
(0.75968841319 -0.650287255653 0)
(0.75968841319 -0.650287255653 0)
(0.996086757336 -0.0883808342336 0)
(0.996086757336 -0.0883808342336 0)
(0.984378302582 0.17606634376 0)
(0.984378302582 0.17606634376 0)
(0.862314080414 0.506373801375 0)
(0.862314080414 0.506373801375 0)
(0.814186868258 0.580602913838 0)
(0.814186868258 0.580602913838 0)
(0.75968841319 0.650287255653 0)
(0.75968841319 0.650287255653 0)
(0.487171662445 0.873306229974 0)
(0.487171662445 0.873306229974 0)
(0.408085387568 0.912943764124 0)
(0.408085387568 0.912943764124 0)
(0.325799648921 0.945438833962 0)
(0.325799648921 0.945438833962 0)
(0.240967605047 0.970533159309 0)
(0.240967605047 0.970533159309 0)
(0.0663208214656 0.99779835069 0)
(0.0663208214656 0.99779835069 0)
(-0.0221192905252 0.999755338564 0)
(-0.0221192905252 0.999755338564 0)
(-0.197800874173 0.980242222196 0)
(-0.197800874173 0.980242222196 0)
(-0.283663799766 0.95892379713 0)
(-0.283663799766 0.95892379713 0)
(-0.666937749423 0.74511343995 0)
(-0.666937749423 0.74511343995 0)
(-0.787709263582 0.616047170327 0)
(-0.787709263582 0.616047170327 0)
(-0.88386724892 0.467737839272 0)
(-0.88386724892 0.467737839272 0)
(-0.952414375833 0.304806260937 0)
(-0.952414375833 0.304806260937 0)
(-0.975625917489 0.219440354367 0)
(-0.975625917489 0.219440354367 0)
(-0.991202693452 0.132352636893 0)
(-0.991202693452 0.132352636893 0)
(-0.999021203989 0.0442338555879 0)
(-0.999021203989 0.0442338555879 0)
(0 0 1)
(0 1 0)
(-1 0 0)
(0 0 1)
(1 -0 0)
(-0 -1 0)
(0 1 0)
(1 0 0)
(0 -0 -1)
(0 -1 -0)
(-0 0 -1)
(-1 0 0)
(-0.999021203989 -0.0442338555879 0)
(-0.999021203989 -0.0442338555879 -0)
(0 0 -1)
(-0.991202693452 -0.132352636893 0)
(0 0 1)
(-0.991202693452 -0.132352636893 -0)
(0 0 -1)
(-0.975625917489 -0.219440354367 0)
(0 0 1)
(-0.975625917489 -0.219440354367 -0)
(0 0 -1)
(-0.952414375833 -0.304806260937 0)
(0 0 1)
(-0.952414375833 -0.304806260937 -0)
(0 0 -1)
(0 0 1)
(0 0 -1)
(-0.88386724892 -0.467737839272 0)
(0 0 1)
(-0.88386724892 -0.467737839272 -0)
(0 0 -1)
(0 0 1)
(0 0 -1)
(-0.787709263582 -0.616047170327 0)
(0 0 1)
(-0.787709263582 -0.616047170327 -0)
(0 0 1)
(0 0 -1)
(-0.666937749423 -0.74511343995 0)
(-0.666937749423 -0.74511343995 -0)
(0 0 1)
(0 0 -1)
(-0.448064747463 -0.894001108546 0)
(0 0 1)
(0 0 -1)
(-0.448064747463 -0.894001108546 -0)
(-0.367302167801 -0.930101670533 0)
(0 0 1)
(0 0 -1)
(-0.367302167801 -0.930101670533 -0)
(0 0 -1)
(0 0 1)
(0 0 -1)
(0 0 1)
(0 0 -1)
(-0.1103963358 -0.993887644074 0)
(0 0 1)
(-0.1103963358 -0.993887644074 -0)
(0 0 -1)
(0 0 1)
(0 0 -1)
(0 0 1)
(0 0 -1)
(0.154250200725 -0.988031819111 0)
(0 0 1)
(0.154250200725 -0.988031819111 0)
(0 0 -1)
(0 0 1)
(0 0 -1)
(0 0 1)
(0 0 -1)
(0 0 1)
(0 0 -1)
(0 0 1)
(0 0 -1)
(0.562448338977 -0.826832429203 0)
(0 0 1)
(0.562448338977 -0.826832429203 0)
(0 0 -1)
(0.633323493054 -0.773887170811 0)
(0 0 1)
(0.633323493054 -0.773887170811 0)
(0 0 -1)
(0.69924159114 -0.714885443425 0)
(0 0 1)
(0.69924159114 -0.714885443425 0)
(-0 0 -1)
(0 0 1)
(0 0 -1)
(0.814186868258 -0.580602913838 0)
(0 0 1)
(0.814186868258 -0.580602913838 0)
(0.862314080414 -0.506373801375 0)
(0 0 1)
(0 0 -1)
(0.862314080414 -0.506373801375 0)
(0.903693782634 -0.42817934003 0)
(0 0 1)
(0 0 -1)
(0.903693782634 -0.42817934003 0)
(0.938000370848 -0.346634251467 0)
(0 0 1)
(0 0 -1)
(0.938000370848 -0.346634251467 0)
(0.964964274553 -0.26238130428 0)
(0 0 1)
(0 0 -1)
(0.964964274553 -0.26238130428 0)
(0.984378302582 -0.17606634376 0)
(0 0 1)
(0 0 -1)
(0.984378302582 -0.17606634376 0)
(0 0 1)
(0 0 -1)
(1 -0 0)
(0 0 1)
(0 0 -1)
(1 0 0)
(0.996086757336 0.0883808342336 0)
(0 0 1)
(0 0 -1)
(0.996086757336 0.0883808342336 0)
(0 0 1)
(0 0 -1)
(0.964964274553 0.26238130428 0)
(0 0 1)
(0 0 -1)
(0.964964274553 0.26238130428 0)
(0 0 -1)
(0.938000370848 0.346634251467 0)
(0 0 1)
(0.938000370848 0.346634251467 0)
(0 0 -1)
(0.903693782634 0.42817934003 0)
(0 0 1)
(0.903693782634 0.42817934003 0)
(0 0 -1)
(0 0 1)
(0 0 1)
(0 0 -1)
(0 0 1)
(0 0 -1)
(0.69924159114 0.714885443425 0)
(0 0 1)
(0 0 -1)
(0.69924159114 0.714885443425 0)
(0.633323493054 0.773887170811 0)
(0 0 1)
(0 0 -1)
(0.633323493054 0.773887170811 0)
(0.562448338977 0.826832429203 0)
(0 0 1)
(0 0 -1)
(0.562448338977 0.826832429203 0)
(0 0 1)
(0 0 -1)
(0 0 1)
(0 0 -1)
(0 0 1)
(0 0 -1)
(0 0 1)
(0 0 -1)
(0.154250200725 0.988031819111 0)
(0 0 1)
(0 0 -1)
(0.154250200725 0.988031819111 0)
(0 0 1)
(0 0 -1)
(0 0 1)
(0 0 -1)
(-0.1103963358 0.993887644074 0)
(0 0 1)
(0 0 -1)
(-0.1103963358 0.993887644074 0)
(0 0 1)
(0 0 -1)
(0 0 1)
(0 0 -1)
(-0.367302167801 0.930101670533 0)
(0 0 1)
(0 0 -1)
(-0.367302167801 0.930101670533 0)
(-0.448064747463 0.894001108546 0)
(0 0 1)
(0 0 -1)
(-0.448064747463 0.894001108546 0)
(-0.525327504642 0.850900119207 0)
(0 0 1)
(0 0 -1)
(-0.525327504642 0.850900119207 0)
(-0.598470082582 0.801145155546 0)
(0 0 1)
(0 0 -1)
(-0.598470082582 0.801145155546 0)
(0 0 1)
(0 0 -1)
(-0.730176900263 0.683258146181 0)
(0 0 1)
(0 -0 -1)
(-0.730176900263 0.683258146181 0)
(0 0 1)
(0 0 -1)
(-0.839072780424 0.544019180868 0)
(0 0 1)
(0 0 -1)
(-0.839072780424 0.544019180868 0)
(0 0 -1)
(0 0 1)
(0 0 -1)
(-0.921750021916 0.38778460142 0)
(0 0 1)
(-0.921750021916 0.38778460142 0)
(0 0 -1)
(0 0 1)
(0 0 -1)
(0 0 1)
(0 0 -1)
(0 0 1)
(0 0 -1)
(0 0 1)
(0 0 -1)
(0 0 1)
)

// normal volume types

292
(
0
0
0
0
0
0
0
0
0
0
0
0
0
0
0
0
0
0
0
0
0
0
0
0
0
0
0
0
0
0
0
0
0
0
0
0
0
0
0
0
0
0
0
0
0
0
0
0
0
0
0
0
0
0
0
0
0
0
0
0
0
0
0
0
0
0
0
0
0
0
0
0
0
0
0
0
0
0
0
0
0
0
0
0
0
0
0
0
0
0
0
0
0
0
0
0
0
0
0
0
0
0
0
0
0
0
0
0
0
0
0
0
0
0
0
0
0
0
0
0
0
0
0
0
0
0
0
0
0
0
0
0
0
0
0
0
0
0
0
0
0
0
0
0
0
0
0
0
0
0
0
0
0
0
0
0
0
0
0
0
0
0
0
0
0
0
0
0
0
0
0
0
0
0
0
0
0
0
0
0
0
0
0
0
0
0
0
0
0
0
0
0
0
0
0
0
0
0
0
0
0
0
0
0
0
0
0
0
0
0
0
0
0
0
0
0
0
0
0
0
0
0
0
0
0
0
0
0
0
0
0
0
0
0
0
0
0
0
0
0
0
0
0
0
0
0
0
0
0
0
0
0
0
0
0
0
0
0
0
0
0
0
0
0
0
0
0
0
0
0
0
0
0
0
0
0
0
0
0
0
0
0
0
0
0
0
0
0
0
0
0
0
)

// normalDirections

438
(
2(1 -1)
2(1 -1)
2(1 -1)
2(1 -1)
2(1 -1)
2(1 -1)
2(1 -1)
2(1 -1)
2(1 -1)
2(1 -1)
2(1 -1)
2(1 -1)
2(1 -1)
2(1 -1)
2(1 -1)
2(1 -1)
2(1 -1)
2(1 -1)
2(1 -1)
2(1 -1)
2(1 -1)
2(1 -1)
2(1 -1)
2(1 -1)
2(1 -1)
2(1 -1)
2(1 -1)
2(1 -1)
2(1 -1)
2(1 -1)
2(1 -1)
2(1 -1)
2(1 -1)
2(1 -1)
2(1 -1)
2(1 -1)
2(1 -1)
2(1 -1)
2(1 -1)
2(1 -1)
2(1 -1)
2(1 -1)
2(1 -1)
2(1 -1)
2(1 -1)
2(1 -1)
2(1 -1)
2(1 -1)
2(1 -1)
2(1 -1)
2(1 -1)
2(1 -1)
2(1 -1)
2(1 -1)
2(1 -1)
2(1 -1)
2(1 -1)
2(1 -1)
2(1 -1)
2(1 -1)
2(1 -1)
2(1 -1)
2(1 -1)
2(1 -1)
2(1 -1)
2(1 -1)
2(1 -1)
2(1 -1)
2(1 -1)
2(1 -1)
2(1 -1)
2(1 -1)
2(1 -1)
2(1 -1)
2(1 -1)
2(1 -1)
2(1 -1)
2(1 -1)
2(1 -1)
2(1 -1)
2(1 -1)
2(1 -1)
2(1 -1)
2(1 -1)
2(1 -1)
2(1 -1)
2(1 -1)
2(1 -1)
2(1 -1)
2(1 -1)
2(1 -1)
2(1 -1)
2(1 -1)
2(1 -1)
2(1 -1)
2(1 -1)
2(1 -1)
2(1 -1)
2(1 -1)
2(1 -1)
2(1 -1)
2(1 -1)
2(1 -1)
2(1 -1)
2(1 -1)
2(1 -1)
2(1 -1)
2(1 -1)
2(1 -1)
2(1 -1)
2(1 -1)
2(1 -1)
2(1 -1)
2(1 -1)
2(1 -1)
2(1 -1)
2(1 -1)
2(1 -1)
2(1 -1)
2(1 -1)
2(1 -1)
2(1 -1)
2(1 -1)
2(1 -1)
2(1 -1)
2(1 -1)
2(1 -1)
2(1 -1)
2(1 -1)
2(1 -1)
2(1 -1)
2(1 -1)
2(1 -1)
2(1 -1)
2(1 -1)
2(1 -1)
2(1 -1)
2(1 -1)
2(1 -1)
2(1 -1)
2(1 -1)
2(1 -1)
2(1 -1)
2(1 -1)
2(1 -1)
2(1 -1)
2(1 -1)
2(1 -1)
2(1 -1)
2(1 -1)
2(1 -1)
2(1 -1)
2(1 -1)
2(1 -1)
2(1 -1)
2(1 -1)
2(1 -1)
2(1 -1)
2(1 -1)
2(1 -1)
2(1 -1)
2(1 -1)
2(1 -1)
2(1 -1)
2(1 -1)
2(1 -1)
2(1 -1)
2(1 -1)
2(1 -1)
2(1 -1)
2(1 -1)
2(1 -1)
2(1 -1)
2(1 -1)
2(1 -1)
2(1 -1)
2(1 -1)
2(1 -1)
2(1 -1)
2(1 -1)
2(1 -1)
2(1 -1)
2(1 -1)
2(1 -1)
2(1 -1)
2(1 -1)
2(1 -1)
2(1 -1)
2(1 -1)
2(1 -1)
2(1 -1)
2(1 -1)
2(1 -1)
2(1 -1)
2(1 -1)
2(1 -1)
2(1 -1)
2(1 -1)
2(1 -1)
2(1 -1)
2(1 -1)
2(1 -1)
2(1 -1)
2(1 -1)
2(1 -1)
2(1 -1)
2(1 -1)
2(1 -1)
2(1 -1)
2(1 -1)
2(1 -1)
2(1 -1)
2(1 -1)
2(1 -1)
2(1 -1)
2(1 -1)
2(1 -1)
2(1 -1)
2(1 -1)
2(1 -1)
2(1 -1)
2(1 -1)
2(1 -1)
2(1 -1)
2(1 -1)
2(1 -1)
2(1 -1)
2(1 -1)
2(1 -1)
2(1 -1)
2(1 -1)
2(1 -1)
2(1 -1)
2(1 -1)
2(1 -1)
2(1 -1)
2(1 -1)
2(1 -1)
2(1 -1)
2(1 -1)
2(1 -1)
2(1 -1)
2(1 -1)
2(1 -1)
2(1 -1)
2(1 -1)
2(1 -1)
2(1 -1)
2(1 -1)
2(1 -1)
2(1 -1)
2(1 -1)
2(1 -1)
2(1 -1)
2(1 -1)
2(1 -1)
2(1 -1)
2(1 -1)
2(1 -1)
2(1 -1)
2(1 -1)
2(1 -1)
2(1 -1)
2(1 -1)
2(1 -1)
2(1 -1)
2(1 -1)
2(1 -1)
2(1 -1)
2(1 -1)
2(1 -1)
2(1 -1)
2(1 -1)
2(1 -1)
2(1 -1)
2(1 -1)
2(1 -1)
2(1 -1)
2(1 -1)
2(1 -1)
2(1 -1)
2(1 -1)
2(1 -1)
2(1 -1)
2(1 -1)
2(1 -1)
2(1 -1)
2(1 -1)
2(1 -1)
2(1 -1)
2(1 -1)
2(1 -1)
2(1 -1)
2(1 -1)
2(1 -1)
2(1 -1)
2(1 -1)
2(1 -1)
2(1 -1)
2(1 -1)
2(1 -1)
2(1 -1)
2(1 -1)
2(1 -1)
2(1 -1)
2(1 -1)
2(1 -1)
2(1 -1)
2(1 -1)
2(1 -1)
2(1 -1)
2(1 -1)
2(1 -1)
2(1 -1)
2(1 -1)
2(1 -1)
2(1 -1)
2(1 -1)
2(1 -1)
2(1 -1)
2(1 -1)
2(1 -1)
2(1 -1)
2(1 -1)
2(1 -1)
2(1 -1)
2(1 -1)
2(1 -1)
2(1 -1)
2(1 -1)
2(1 -1)
2(1 -1)
2(1 -1)
2(1 -1)
2(1 -1)
2(1 -1)
2(1 -1)
2(1 -1)
2(1 -1)
2(1 -1)
2(1 -1)
2(1 -1)
2(1 -1)
2(1 -1)
2(1 -1)
2(1 -1)
2(1 -1)
2(1 -1)
2(1 -1)
2(1 -1)
2(1 -1)
2(1 -1)
2(1 -1)
2(1 -1)
2(1 -1)
2(1 -1)
2(1 -1)
2(1 -1)
2(1 -1)
2(1 -1)
2(1 -1)
2(1 -1)
2(1 -1)
2(1 -1)
2(1 -1)
2(1 -1)
2(1 -1)
2(1 -1)
2(1 -1)
2(1 -1)
2(1 -1)
2(1 -1)
2(1 -1)
2(1 -1)
2(1 -1)
2(1 -1)
2(1 -1)
2(1 -1)
2(1 -1)
2(1 -1)
2(1 -1)
2(1 -1)
2(1 -1)
2(1 -1)
2(1 -1)
2(1 -1)
2(1 -1)
2(1 -1)
2(1 -1)
2(1 -1)
2(1 -1)
2(1 -1)
2(1 -1)
2(1 -1)
2(1 -1)
2(1 -1)
2(1 -1)
2(1 -1)
2(1 -1)
2(1 -1)
2(1 -1)
2(1 -1)
2(1 -1)
2(1 -1)
2(1 -1)
2(1 -1)
2(1 -1)
2(1 -1)
2(1 -1)
2(1 -1)
2(1 -1)
2(1 -1)
2(1 -1)
2(1 -1)
2(1 -1)
2(1 -1)
2(1 -1)
2(1 -1)
2(1 -1)
2(1 -1)
2(1 -1)
2(1 -1)
2(1 -1)
2(1 -1)
2(1 -1)
2(1 -1)
2(1 -1)
2(1 -1)
2(1 -1)
2(1 -1)
2(1 -1)
2(1 -1)
2(1 -1)
2(1 -1)
2(1 -1)
2(1 -1)
2(1 -1)
2(1 -1)
)

// edgeNormals

438
(
2(68 69)
2(68 70)
2(71 72)
2(71 73)
2(72 74)
2(75 76)
2(75 77)
2(74 78)
2(69 70)
2(78 79)
2(76 77)
2(79 73)
2(80 67)
2(80 82)
2(81 83)
2(81 84)
2(83 86)
2(85 87)
2(85 88)
2(87 90)
2(89 91)
2(89 92)
2(91 94)
2(93 0)
2(93 95)
2(0 96)
2(1 97)
2(1 98)
2(97 100)
2(99 2)
2(99 101)
2(2 102)
2(3 103)
2(3 104)
2(105 5)
2(105 106)
2(103 107)
2(4 108)
2(4 106)
2(5 107)
2(109 7)
2(109 110)
2(108 111)
2(6 9)
2(6 110)
2(7 111)
2(8 112)
2(8 113)
2(9 114)
2(115 116)
2(115 117)
2(112 118)
2(116 120)
2(119 10)
2(119 121)
2(10 122)
2(11 12)
2(11 123)
2(12 124)
2(13 125)
2(13 126)
2(125 128)
2(127 14)
2(127 129)
2(14 130)
2(15 16)
2(15 131)
2(16 132)
2(17 133)
2(17 134)
2(133 136)
2(135 18)
2(135 137)
2(18 138)
2(19 20)
2(19 139)
2(20 140)
2(21 22)
2(21 141)
2(22 142)
2(23 24)
2(23 143)
2(24 144)
2(25 145)
2(25 146)
2(145 148)
2(147 149)
2(147 150)
2(149 152)
2(151 153)
2(151 154)
2(153 156)
2(155 26)
2(155 157)
2(26 158)
2(27 159)
2(27 160)
2(161 162)
2(161 163)
2(159 164)
2(165 166)
2(165 167)
2(162 168)
2(169 170)
2(169 171)
2(166 172)
2(173 174)
2(173 175)
2(170 176)
2(177 178)
2(177 179)
2(174 180)
2(181 29)
2(181 182)
2(178 183)
2(28 184)
2(28 185)
2(29 186)
2(187 188)
2(187 189)
2(184 190)
2(191 31)
2(191 192)
2(188 193)
2(30 194)
2(30 195)
2(31 196)
2(194 198)
2(197 199)
2(197 200)
2(199 202)
2(201 203)
2(201 204)
2(203 206)
2(205 33)
2(205 207)
2(32 35)
2(32 208)
2(33 209)
2(34 37)
2(34 210)
2(35 211)
2(36 212)
2(36 213)
2(37 214)
2(215 216)
2(215 217)
2(212 218)
2(219 220)
2(219 221)
2(216 222)
2(223 39)
2(223 224)
2(220 225)
2(38 41)
2(38 226)
2(39 227)
2(40 43)
2(40 228)
2(41 229)
2(42 45)
2(42 230)
2(43 231)
2(44 232)
2(44 233)
2(45 234)
2(235 47)
2(235 236)
2(232 237)
2(46 49)
2(46 238)
2(47 239)
2(48 240)
2(48 241)
2(49 242)
2(243 51)
2(243 244)
2(240 245)
2(50 53)
2(50 246)
2(51 247)
2(52 248)
2(52 249)
2(53 250)
2(251 252)
2(251 253)
2(248 254)
2(255 256)
2(255 257)
2(252 258)
2(259 260)
2(259 261)
2(256 262)
2(263 55)
2(263 264)
2(260 265)
2(54 266)
2(54 267)
2(55 268)
2(269 57)
2(269 270)
2(266 271)
2(56 272)
2(56 273)
2(57 274)
2(272 276)
2(275 58)
2(275 277)
2(58 278)
2(59 279)
2(59 280)
2(279 282)
2(281 60)
2(281 283)
2(60 284)
2(61 62)
2(61 285)
2(62 286)
2(63 64)
2(63 287)
2(64 288)
2(65 66)
2(65 289)
2(66 290)
2(67 291)
2(0 1)
2(2 3)
2(4 5)
2(6 7)
2(8 9)
2(10 11)
2(12 13)
2(14 15)
2(16 17)
2(18 19)
2(20 21)
2(22 23)
2(24 25)
2(26 27)
2(28 29)
2(30 31)
2(32 33)
2(34 35)
2(36 37)
2(38 39)
2(40 41)
2(42 43)
2(44 45)
2(46 47)
2(48 49)
2(50 51)
2(52 53)
2(54 55)
2(56 57)
2(58 59)
2(60 61)
2(62 63)
2(64 65)
2(66 67)
2(80 81)
2(83 85)
2(87 89)
2(91 93)
2(97 99)
2(105 103)
2(109 108)
2(115 112)
2(116 119)
2(125 127)
2(133 135)
2(145 147)
2(149 151)
2(153 155)
2(161 159)
2(165 162)
2(169 166)
2(173 170)
2(177 174)
2(181 178)
2(187 184)
2(191 188)
2(194 197)
2(199 201)
2(203 205)
2(215 212)
2(219 216)
2(223 220)
2(235 232)
2(243 240)
2(251 248)
2(255 252)
2(259 256)
2(263 260)
2(269 266)
2(272 275)
2(279 281)
2(82 86)
2(82 290)
2(86 90)
2(90 94)
2(94 96)
2(96 100)
2(100 102)
2(102 107)
2(111 114)
2(114 118)
2(118 120)
2(120 122)
2(122 124)
2(124 128)
2(128 130)
2(130 132)
2(132 136)
2(136 138)
2(138 140)
2(140 142)
2(142 144)
2(144 148)
2(148 152)
2(152 156)
2(156 158)
2(158 164)
2(164 168)
2(168 172)
2(172 176)
2(176 180)
2(180 183)
2(183 186)
2(186 190)
2(190 193)
2(193 196)
2(196 198)
2(198 202)
2(202 206)
2(206 209)
2(209 211)
2(211 214)
2(214 218)
2(218 222)
2(222 225)
2(225 227)
2(227 229)
2(229 231)
2(231 234)
2(234 237)
2(237 239)
2(239 242)
2(242 245)
2(245 247)
2(247 250)
2(250 254)
2(254 258)
2(258 262)
2(262 265)
2(265 268)
2(268 271)
2(271 274)
2(274 276)
2(276 278)
2(278 282)
2(282 284)
2(284 286)
2(286 288)
2(288 290)
2(84 88)
2(84 291)
2(88 92)
2(92 95)
2(95 98)
2(98 101)
2(101 104)
2(104 106)
2(110 113)
2(113 117)
2(117 121)
2(121 123)
2(123 126)
2(126 129)
2(129 131)
2(131 134)
2(134 137)
2(137 139)
2(139 141)
2(141 143)
2(143 146)
2(146 150)
2(150 154)
2(154 157)
2(157 160)
2(160 163)
2(163 167)
2(167 171)
2(171 175)
2(175 179)
2(179 182)
2(182 185)
2(185 189)
2(189 192)
2(192 195)
2(195 200)
2(200 204)
2(204 207)
2(207 208)
2(208 210)
2(210 213)
2(213 217)
2(217 221)
2(221 224)
2(224 226)
2(226 228)
2(228 230)
2(230 233)
2(233 236)
2(236 238)
2(238 241)
2(241 244)
2(244 246)
2(246 249)
2(249 253)
2(253 257)
2(257 261)
2(261 264)
2(264 267)
2(267 270)
2(270 273)
2(273 277)
2(277 280)
2(280 283)
2(283 285)
2(285 287)
2(287 289)
2(289 291)
2(68 71)
2(72 75)
2(74 69)
2(78 76)
2(70 79)
2(77 73)
)

// featurePointNormals

150
(
3(68 69 70)
3(75 76 77)
3(80 82 83)
3(80 67 84)
3(80 67 82)
3(81 83 84)
3(83 86 87)
3(85 87 88)
3(87 90 91)
3(89 91 92)
3(91 94 0)
3(93 0 95)
3(0 96 97)
3(1 97 98)
3(97 100 2)
3(99 2 101)
3(2 102 103)
3(3 103 104)
3(105 5 107)
3(105 5 106)
3(4 108 107)
3(4 108 106)
3(109 7 111)
3(109 7 110)
3(6 9 111)
3(6 9 110)
3(8 112 114)
3(8 112 113)
3(115 116 118)
3(115 116 117)
3(116 120 10)
3(119 10 121)
3(10 122 12)
3(11 12 123)
3(12 124 125)
3(13 125 126)
3(125 128 14)
3(127 14 129)
3(14 130 16)
3(15 16 131)
3(16 132 133)
3(17 133 134)
3(133 136 18)
3(135 18 137)
3(18 138 20)
3(19 20 139)
3(20 140 22)
3(21 22 141)
3(22 142 24)
3(23 24 143)
3(24 144 145)
3(25 145 146)
3(145 148 149)
3(147 149 150)
3(149 152 153)
3(151 153 154)
3(153 156 26)
3(155 26 157)
3(26 158 159)
3(27 159 160)
3(161 162 164)
3(161 162 163)
3(165 166 168)
3(165 166 167)
3(169 170 172)
3(169 170 171)
3(173 174 176)
3(173 174 175)
3(177 178 180)
3(177 178 179)
3(181 29 183)
3(181 29 182)
3(28 184 186)
3(28 184 185)
3(187 188 190)
3(187 188 189)
3(191 31 193)
3(191 31 192)
3(30 194 196)
3(30 194 195)
3(194 198 199)
3(197 199 200)
3(199 202 203)
3(201 203 204)
3(203 206 33)
3(205 33 207)
3(32 35 209)
3(32 35 208)
3(34 37 211)
3(34 37 210)
3(36 212 214)
3(36 212 213)
3(215 216 218)
3(215 216 217)
3(219 220 222)
3(219 220 221)
3(223 39 225)
3(223 39 224)
3(38 41 227)
3(38 41 226)
3(40 43 229)
3(40 43 228)
3(42 45 231)
3(42 45 230)
3(44 232 234)
3(44 232 233)
3(235 47 237)
3(235 47 236)
3(46 49 239)
3(46 49 238)
3(48 240 242)
3(48 240 241)
3(243 51 245)
3(243 51 244)
3(50 53 247)
3(50 53 246)
3(52 248 250)
3(52 248 249)
3(251 252 254)
3(251 252 253)
3(255 256 258)
3(255 256 257)
3(259 260 262)
3(259 260 261)
3(263 55 265)
3(263 55 264)
3(54 266 268)
3(54 266 267)
3(269 57 271)
3(269 57 270)
3(56 272 274)
3(56 272 273)
3(272 276 58)
3(275 58 277)
3(58 278 279)
3(59 279 280)
3(279 282 60)
3(281 60 283)
3(60 284 62)
3(61 62 285)
3(62 286 64)
3(63 64 287)
3(64 288 66)
3(65 66 289)
3(68 69 72)
3(68 70 73)
3(71 72 73)
3(72 74 76)
3(74 78 70)
3(78 79 77)
)

// featurePointEdges

150
(
3(0 8 1)
3(5 10 6)
5(259 14 16 296 13)
5(259 15 365 224 12)
5(12 258 223 297 13)
5(14 260 18 364 15)
5(260 17 19 298 16)
5(17 261 21 366 18)
5(261 20 22 299 19)
5(20 262 24 367 21)
5(262 23 25 300 22)
5(23 225 27 368 24)
5(225 26 28 301 25)
5(26 263 30 369 27)
5(263 29 31 302 28)
5(29 226 33 370 30)
5(226 32 36 303 31)
5(32 264 35 371 33)
4(264 36 39 34)
4(34 227 38 35)

72
(
227
39
303
302
301
300
299
298
296
297
363
362
361
360
359
358
357
356
355
354
353
352
351
350
349
348
347
346
345
344
343
342
341
340
339
338
337
336
335
334
333
332
331
330
329
328
327
326
325
324
323
322
321
320
319
318
317
316
315
314
313
312
311
310
309
308
307
306
305
304
42
37
)


72
(
37
265
41
372
373
374
375
376
377
378
379
380
381
382
383
384
385
386
387
388
389
390
391
392
393
394
395
396
397
398
399
400
401
402
403
404
405
406
407
408
409
410
411
412
413
414
415
416
417
418
419
420
421
422
423
424
425
426
427
428
429
430
431
365
364
366
367
368
369
370
371
38
)

4(265 42 45 40)
4(40 228 44 41)
5(228 45 304 48 43)
5(43 229 47 372 44)
5(229 48 305 51 46)
5(46 266 50 373 47)
5(266 51 306 52 49)
5(49 267 54 374 50)
5(267 53 55 307 52)
5(53 230 57 375 54)
5(230 56 58 308 55)
5(56 231 60 376 57)
5(231 59 61 309 58)
5(59 268 63 377 60)
5(268 62 64 310 61)
5(62 232 66 378 63)
5(232 65 67 311 64)
5(65 233 69 379 66)
5(233 68 70 312 67)
5(68 269 72 380 69)
5(269 71 73 313 70)
5(71 234 75 381 72)
5(234 74 76 314 73)
5(74 235 78 382 75)
5(235 77 79 315 76)
5(77 236 81 383 78)
5(236 80 82 316 79)
5(80 237 84 384 81)
5(237 83 85 317 82)
5(83 270 87 385 84)
5(270 86 88 318 85)
5(86 271 90 386 87)
5(271 89 91 319 88)
5(89 272 93 387 90)
5(272 92 94 320 91)
5(92 238 96 388 93)
5(238 95 99 321 94)
5(95 273 98 389 96)
5(273 99 322 102 97)
5(97 274 101 390 98)
5(274 102 323 105 100)
5(100 275 104 391 101)
5(275 105 324 108 103)
5(103 276 107 392 104)
5(276 108 325 111 106)
5(106 277 110 393 107)
5(277 111 326 114 109)
5(109 278 113 394 110)
5(278 114 327 117 112)
5(112 239 116 395 113)
5(239 117 328 120 115)
5(115 279 119 396 116)
5(279 120 329 123 118)
5(118 280 122 397 119)
5(280 123 330 126 121)
5(121 240 125 398 122)
5(240 126 331 127 124)
5(124 281 129 399 125)
5(281 128 130 332 127)
5(128 282 132 400 129)
5(282 131 133 333 130)
5(131 283 135 401 132)
5(283 134 138 334 133)
5(134 241 137 402 135)
5(241 138 335 141 136)
5(136 242 140 403 137)
5(242 141 336 144 139)
5(139 243 143 404 140)
5(243 144 337 147 142)
5(142 284 146 405 143)
5(284 147 338 150 145)
5(145 285 149 406 146)
5(285 150 339 153 148)
5(148 286 152 407 149)
5(286 153 340 156 151)
5(151 244 155 408 152)
5(244 156 341 159 154)
5(154 245 158 409 155)
5(245 159 342 162 157)
5(157 246 161 410 158)
5(246 162 343 165 160)
5(160 247 164 411 161)
5(247 165 344 168 163)
5(163 287 167 412 164)
5(287 168 345 171 166)
5(166 248 170 413 167)
5(248 171 346 174 169)
5(169 249 173 414 170)
5(249 174 347 177 172)
5(172 288 176 415 173)
5(288 177 348 180 175)
5(175 250 179 416 176)
5(250 180 349 183 178)
5(178 251 182 417 179)
5(251 183 350 186 181)