/*--------------------------------*- C++ -*----------------------------------*\
| =========                 |                                                 |
| \\      /  F ield         | OpenFOAM: The Open Source CFD Toolbox           |
|  \\    /   O peration     | Version:  v1806                                 |
|   \\  /    A nd           | Web:      www.OpenFOAM.com                      |
|    \\/     M anipulation  |                                                 |
\*---------------------------------------------------------------------------*/
FoamFile
{
    version     2.0;
    format      ascii;
    class       dictionary;
    object      surfaceFeatureExtractDict;
}
// * * * * * * * * * * * * * * * * * * * * * * * * * * * * * * * * * * * * * //

regionSTL.stl
{
    extractionMethod     extractFromSurface;

    includedAngle        180;

    subsetFeatures
    {
        nonManifoldEdges yes;
        openEdges        yes;
    }

    trimFeatures
    {
        minElem          0;
        minLen           0;
    }

    writeObj             yes;
}

// ************************************************************************* //
