/*--------------------------------*- C++ -*----------------------------------*\
| =========                 |                                                 |
| \\      /  F ield         | OpenFOAM: The Open Source CFD Toolbox           |
|  \\    /   O peration     | Version:  v1806                                 |
|   \\  /    A nd           | Web:      www.OpenFOAM.com                      |
|    \\/     M anipulation  |                                                 |
\*---------------------------------------------------------------------------*/
FoamFile
{
    version     2.0;
    format      ascii;
    class       volScalarField;
    object      k;
}
// * * * * * * * * * * * * * * * * * * * * * * * * * * * * * * * * * * * * * //

dimensions      [ 0 2 -2 0 0 0 0 ];

internalField   uniform 0.2;

boundaryField
{
    #includeEtc "caseDicts/setConstraintTypes"

    stationaryWalls
    {
        type            kqRWallFunction;
        value           uniform 0.1;
    }
    atmosphere
    {
        type            inletOutlet;
        inletValue      uniform 0.1;
        value           uniform 0.1;
    }
    floatingObject
    {
        type            kqRWallFunction;
        value           uniform 0.1;
    }

//    left1
//    {
//        type            turbulentIntensityKineticEnergyInlet;
//        intensity       0.05;       // 5% turbulent intensity
//        value           $internalField;
//    }
//
//    right1
//    {
//        type            calculated;
//        value           $internalField;
//    }

    oversetPatch
    {
        type            overset;
    }
}

// ************************************************************************* //
