/*--------------------------------*- C++ -*----------------------------------*\
| =========                 |                                                 |
| \\      /  F ield         | OpenFOAM: The Open Source CFD Toolbox           |
|  \\    /   O peration     | Version:  v1806                                 |
|   \\  /    A nd           | Web:      www.OpenFOAM.com                      |
|    \\/     M anipulation  |                                                 |
\*---------------------------------------------------------------------------*/
FoamFile
{
    version     2.0;
    format      ascii;
    class       volScalarField;
    object      epsilon;
}
// * * * * * * * * * * * * * * * * * * * * * * * * * * * * * * * * * * * * * //

dimensions      [ 0 2 -3 0 0 0 0 ];

internalField   uniform 200;

boundaryField
{
    #includeEtc "caseDicts/setConstraintTypes"

    stationaryWalls
    {
        type            epsilonWallFunction;
        Cmu             0.09;
        kappa           0.41;
        E               9.8;
        value           uniform 200;
    }
    atmosphere
    {
        type            inletOutlet;
        inletValue      uniform 200;
        value           uniform 200;
    }
    floatingObject
    {
        type            epsilonWallFunction;
        Cmu             0.09;
        kappa           0.41;
        E               9.8;
        value           uniform 200;
    }

//    left1
//    {
//        type            turbulentMixingLengthDissipationRateInlet;
//        mixingLength    0.01;       // 1cm - half channel height
//        value           $internalField;
//    }
//
//    right1
//    {
//        type            calculated;
//        value           $internalField;
//    }

    oversetPatch
    {
        type            overset;
    }
}

// ************************************************************************* //
